Circuit: *

Error on line 9 : v7 p003 p002 sine(0 .33 3* 10000 )
	 Unknown parameter "*"
WARNING: Less than two connections to node +15.  This node is used by V3.
WARNING: Less than two connections to node -15.  This node is used by V4.
WARNING: Less than two connections to node VIN.  This node is used by V8.
Direct Newton iteration failed to find .op point.  (Use ".option noopiter" to skip.)
Starting Gmin stepping
Gmin = 10
Gmin = 1.07374
Gmin = 0.115292
Gmin = 0.0123794
Gmin = 0.00132923
Gmin = 0.000142725
Gmin = 1.5325e-05
Gmin = 1.6455e-06
Gmin = 1.76685e-07
Gmin = 1.89714e-08
Gmin = 2.03704e-09
Gmin = 2.18725e-10
Gmin = 2.34854e-11
Gmin = 2.52173e-12
Gmin = 2.70769e-13
Gmin = 0
Gmin stepping succeeded in finding the operating point.


Date: Mon Dec  4 17:12:29 2017
Total elapsed time: 1.644 seconds.

tnom = 27
temp = 27
method = modified trap
totiter = 81156
traniter = 80806
tranpoints = 40404
accept = 24315
rejected = 16089
matrix size = 31
fillins = 28
solver = Normal
Thread vector: 22.0/14.8[2] 5.8/5.3[1] 3.4/6.0[1] 0.6/3.4[1]  2592/500
Matrix Compiler1: 3056 object code size  1.2/0.7/[0.4]
Matrix Compiler2:     246 opcodes

